resources/Model_European_System/glm/output_voltage_1.csv
# output_voltage_1.csv run at 2000-01-01 00:01:00 UTC on 963 nodes
node_name,voltA_mag,voltA_angle,voltB_mag,voltB_angle,voltC_mag,voltC_angle
SourceBus,6668.395609,0.000000,6668.395609,4.188790,6668.395609,2.094395
Bus1,249.916441,-0.542243,251.060744,3.657820,251.208991,1.560328
Bus2,249.581920,-0.542060,251.017185,3.657479,251.160469,1.560727
Bus3,249.546851,-0.542041,251.012620,3.657443,251.155385,1.560768
Bus4,249.513996,-0.542023,251.008343,3.657410,251.150622,1.560808
Bus5,249.485352,-0.542007,251.004615,3.657381,251.146470,1.560842
Bus6,249.440226,-0.541983,250.998742,3.657335,251.139929,1.560896
Bus7,246.367720,-0.540282,250.600078,3.654201,250.696241,1.564569
Bus8,246.230124,-0.540205,250.582280,3.654060,250.676448,1.564734
Bus9,246.115601,-0.540141,250.567470,3.653943,250.659980,1.564872
Bus10,246.015099,-0.540085,250.554476,3.653840,250.645531,1.564992
Bus11,245.940107,-0.540042,250.544782,3.653764,250.634752,1.565082
Bus12,245.869707,-0.540003,250.535683,3.653692,250.624635,1.565166
Bus13,245.826418,-0.539978,250.530089,3.653648,250.618414,1.565218
Bus14,245.718648,-0.539918,250.516163,3.653537,250.602932,1.565347
Bus15,244.845657,-0.539424,250.403466,3.652644,250.477664,1.566395
Bus16,244.845657,-0.539424,250.403466,3.652644,250.477664,1.566395
Bus17,243.787086,-0.538821,250.267070,3.651560,250.326125,1.567666
Bus18,244.845657,-0.539424,250.403466,3.652644,250.477664,1.566395
Bus19,243.714253,-0.538779,250.257696,3.651486,250.315713,1.567753
Bus20,244.845657,-0.539424,250.403466,3.652644,250.477664,1.566395
Bus21,243.632471,-0.538732,250.247172,3.651402,250.304024,1.567852
Bus22,244.845657,-0.539424,250.403466,3.652644,250.477664,1.566395
Bus23,243.499314,-0.538656,250.230040,3.651265,250.284997,1.568012
Bus24,244.845657,-0.539424,250.403466,3.652644,250.477664,1.566395
Bus25,243.257073,-0.538517,250.198885,3.651017,250.250398,1.568303
Bus26,244.845657,-0.539424,250.403466,3.652644,250.477664,1.566395
Bus27,243.254461,-0.538514,250.198892,3.651017,250.250427,1.568303
Bus28,240.224933,-0.536753,249.809483,3.647905,249.817615,1.571956
Bus29,244.845657,-0.539424,250.403466,3.652644,250.477664,1.566395
Bus30,243.254173,-0.538514,250.198893,3.651017,250.250430,1.568303
Bus31,243.254040,-0.538514,250.198894,3.651017,250.250432,1.568303
Bus32,239.417858,-0.536275,249.706226,3.647075,249.702964,1.572931
Bus33,244.845657,-0.539424,250.403466,3.652644,250.477664,1.566395
Bus34,243.253514,-0.538513,250.198895,3.651017,250.250438,1.568303
Bus35,243.254026,-0.538514,250.198894,3.651017,250.250432,1.568303
Bus36,239.417886,-0.536275,249.703594,3.647078,249.702971,1.572930
Bus37,236.976956,-0.534816,249.397597,3.644559,249.357514,1.575888
Bus38,244.845657,-0.539424,250.403466,3.652644,250.477664,1.566395
Bus39,243.254005,-0.538514,250.198894,3.651017,250.250432,1.568303
Bus40,239.417888,-0.536275,249.703495,3.647078,249.702972,1.572930
Bus41,239.417891,-0.536275,249.703214,3.647078,249.702972,1.572930
Bus42,235.283434,-0.533785,249.184358,3.642809,249.119080,1.577944
Bus43,236.976956,-0.534816,249.397597,3.644559,249.357514,1.575888
Bus44,244.845657,-0.539424,250.403466,3.652644,250.477664,1.566395
Bus45,243.253979,-0.538514,250.198894,3.651017,250.250433,1.568303
Bus46,239.417888,-0.536275,249.703450,3.647078,249.702972,1.572930
Bus47,239.417901,-0.536275,249.702298,3.647079,249.702975,1.572930
Bus48,234.003881,-0.532996,249.023730,3.641485,248.939605,1.579501
Bus49,236.976956,-0.534816,249.397597,3.644559,249.357514,1.575888
Bus50,244.845657,-0.539424,250.403466,3.652644,250.477664,1.566395
Bus51,243.253915,-0.538514,250.198894,3.651017,250.250433,1.568303
Bus52,239.417889,-0.536275,249.703402,3.647078,249.702972,1.572930
Bus53,233.819407,-0.532882,249.000607,3.641293,248.913778,1.579726
Bus54,234.003881,-0.532996,249.023730,3.641485,248.939605,1.579501
Bus55,236.976956,-0.534816,249.397597,3.644559,249.357514,1.575888
Bus56,244.845657,-0.539424,250.403466,3.652644,250.477664,1.566395
Bus57,243.253861,-0.538514,250.198894,3.651017,250.250434,1.568303
Bus58,239.417889,-0.536275,249.703357,3.647078,249.702972,1.572930
Bus59,232.983828,-0.532361,248.895978,3.640428,248.796947,1.580744
Bus60,234.003881,-0.532996,249.023730,3.641485,248.939605,1.579501
Bus61,236.976956,-0.534816,249.397597,3.644559,249.357514,1.575888
Bus62,244.845657,-0.539424,250.403466,3.652644,250.477664,1.566395
Bus63,243.253598,-0.538513,250.198895,3.651017,250.250437,1.568303
Bus64,239.417889,-0.536275,249.703330,3.647078,249.702972,1.572930
Bus65,233.016963,-0.532448,248.853033,3.640608,248.704972,1.580706
Bus66,228.630014,-0.527777,248.910424,3.640178,248.845058,1.580912
Bus67,234.003881,-0.532996,249.023730,3.641485,248.939605,1.579501
Bus68,236.976956,-0.534816,249.397597,3.644559,249.357514,1.575888
Bus69,244.845657,-0.539424,250.403466,3.652644,250.477664,1.566395
Bus70,243.252670,-0.538512,250.198898,3.651017,250.250447,1.568303
Bus71,239.417890,-0.536275,249.703276,3.647078,249.702972,1.572930
Bus72,233.408568,-0.533470,248.346272,3.642750,247.618346,1.580259
Bus73,226.927229,-0.525937,248.916089,3.640080,248.863885,1.580978
Bus74,228.206290,-0.527319,248.911826,3.640153,248.849749,1.580929
Bus75,234.003881,-0.532996,249.023730,3.641485,248.939605,1.579501
Bus76,236.976956,-0.534816,249.397597,3.644559,249.357514,1.575888
Bus77,244.845657,-0.539424,250.403466,3.652644,250.477664,1.566395
Bus78,239.417893,-0.536275,249.703007,3.647078,249.702973,1.572930
Bus79,233.545129,-0.533825,248.169897,3.643499,247.239588,1.580103
Bus80,234.003881,-0.532996,249.023730,3.641485,248.939605,1.579501
Bus81,236.976956,-0.534816,249.397597,3.644559,249.357514,1.575888
Bus82,244.845657,-0.539424,250.403466,3.652644,250.477664,1.566395
Bus83,239.417904,-0.536275,249.701990,3.647079,249.702976,1.572930
Bus84,233.574935,-0.533902,248.131424,3.643662,247.156931,1.580069
Bus85,234.003881,-0.532996,249.023730,3.641485,248.939605,1.579501
Bus86,236.976956,-0.534816,249.397597,3.644559,249.357514,1.575888
Bus87,244.845657,-0.539424,250.403466,3.652644,250.477664,1.566395
Bus88,233.635381,-0.534059,248.053429,3.643994,246.989318,1.579999
Bus89,234.003881,-0.532996,249.023730,3.641485,248.939605,1.579501
Bus90,236.976956,-0.534816,249.397597,3.644559,249.357514,1.575888
Bus91,244.845657,-0.539424,250.403466,3.652644,250.477664,1.566395
Bus92,233.692389,-0.534207,247.979900,3.644307,246.831251,1.579933
Bus93,236.976956,-0.534816,249.397597,3.644559,249.357514,1.575888
Bus94,244.845657,-0.539424,250.403466,3.652644,250.477664,1.566395
Bus95,233.725527,-0.534293,247.937174,3.644489,246.739377,1.579895
Bus96,236.976956,-0.534816,249.397597,3.644559,249.357514,1.575888
Bus97,244.845657,-0.539424,250.403466,3.652644,250.477664,1.566395
Bus98,233.747413,-0.534350,247.908961,3.644609,246.678702,1.579870
Bus99,236.976956,-0.534816,249.397597,3.644559,249.357514,1.575888
Bus100,244.845657,-0.539424,250.403466,3.652644,250.477664,1.566395
Bus101,233.777633,-0.534429,247.870012,3.644775,246.594926,1.579835
Bus102,236.976956,-0.534816,249.397597,3.644559,249.357514,1.575888
Bus103,244.845657,-0.539424,250.403466,3.652644,250.477664,1.566395
Bus104,233.777634,-0.534429,247.869987,3.644775,246.594904,1.579835
Bus105,233.797580,-0.534480,247.844424,3.644885,246.539725,1.579812
Bus106,236.976956,-0.534816,249.397597,3.644559,249.357514,1.575888
Bus107,233.777634,-0.534429,247.869957,3.644775,246.594877,1.579835
Bus108,233.808892,-0.534510,247.829915,3.644947,246.508424,1.579799
Bus109,236.976956,-0.534816,249.397597,3.644559,249.357514,1.575888
Bus110,233.777635,-0.534429,247.869922,3.644775,246.594846,1.579835
Bus111,234.255366,-0.535665,247.258201,3.647402,245.273379,1.579283
Bus112,236.976956,-0.534816,249.397597,3.644559,249.357514,1.575888
Bus113,233.777636,-0.534429,247.869869,3.644775,246.594798,1.579835
Bus114,234.300110,-0.535781,247.201010,3.647649,245.149658,1.579231
Bus115,236.976956,-0.534816,249.397597,3.644559,249.357514,1.575888
Bus116,233.777638,-0.534429,247.869800,3.644775,246.594737,1.579835
Bus117,234.300108,-0.535781,247.200957,3.647649,245.149565,1.579231
Bus118,234.440456,-0.536146,247.026302,3.648346,244.766279,1.578966
Bus119,236.976956,-0.534816,249.397597,3.644559,249.357514,1.575888
Bus120,233.777639,-0.534429,247.869751,3.644775,246.594693,1.579834
Bus121,234.300108,-0.535781,247.200957,3.647649,245.149565,1.579231
Bus122,234.300107,-0.535781,247.200931,3.647649,245.149520,1.579231
Bus123,234.693630,-0.536803,246.711544,3.649607,244.074948,1.578487
Bus124,236.976956,-0.534816,249.397597,3.644559,249.357514,1.575888
Bus125,233.777641,-0.534429,247.869681,3.644775,246.594631,1.579834
Bus126,234.300108,-0.535781,247.200957,3.647649,245.149565,1.579231
Bus127,234.300102,-0.535781,247.200810,3.647649,245.149308,1.579230
Bus128,234.807515,-0.537099,246.570125,3.650175,243.764075,1.578270
Bus129,236.976956,-0.534816,249.397597,3.644559,249.357514,1.575888
Bus130,233.777642,-0.534429,247.869606,3.644775,246.594563,1.579834
Bus131,234.300108,-0.535781,247.200957,3.647649,245.149565,1.579231
Bus132,234.299146,-0.535780,247.200813,3.647649,245.149318,1.579230
Bus133,234.300370,-0.535782,247.200437,3.647650,245.148616,1.579229
Bus134,234.841403,-0.537186,246.528065,3.650344,243.671584,1.578206
Bus135,236.976956,-0.534816,249.397597,3.644559,249.357514,1.575888
Bus136,233.777644,-0.534429,247.869535,3.644775,246.594500,1.579834
Bus137,234.300108,-0.535781,247.200957,3.647649,245.149565,1.579231
Bus138,234.299064,-0.535780,247.200814,3.647649,245.149319,1.579230
Bus139,234.300569,-0.535782,247.200159,3.647650,245.148102,1.579228
Bus140,234.879658,-0.537285,246.480595,3.650535,243.567181,1.578133
Bus141,236.976956,-0.534816,249.397597,3.644559,249.357514,1.575888
Bus142,233.777647,-0.534429,247.869418,3.644775,246.594396,1.579834
Bus143,234.300108,-0.535781,247.200957,3.647649,245.149565,1.579231
Bus144,234.298983,-0.535780,247.200814,3.647649,245.149320,1.579230
Bus145,234.300703,-0.535783,247.199973,3.647650,245.147758,1.579228
Bus146,234.915638,-0.537378,246.435959,3.650715,243.468993,1.578064
Bus147,236.976956,-0.534816,249.397597,3.644559,249.357514,1.575888
Bus148,233.777659,-0.534429,247.868863,3.644776,246.593900,1.579833
Bus149,234.300108,-0.535781,247.200957,3.647649,245.149565,1.579231
Bus150,234.298918,-0.535780,247.200814,3.647649,245.149321,1.579230
Bus151,234.300744,-0.535783,247.200085,3.647651,245.147386,1.579227
Bus152,234.300733,-0.535782,247.197268,3.647653,245.147765,1.579227
Bus153,234.957622,-0.537487,246.383887,3.650925,243.354428,1.577984
Bus154,236.976956,-0.534816,249.397597,3.644559,249.357514,1.575888
Bus155,233.777662,-0.534429,247.868742,3.644776,246.593792,1.579832
Bus156,234.300108,-0.535781,247.200957,3.647649,245.149565,1.579231
Bus157,234.298820,-0.535780,247.200814,3.647649,245.149322,1.579230
Bus158,234.300854,-0.535785,247.200380,3.647652,245.146402,1.579227
Bus159,234.300735,-0.535782,247.197103,3.647653,245.147765,1.579227
Bus160,234.969704,-0.537518,246.368906,3.650985,243.321463,1.577961
Bus161,236.976956,-0.534816,249.397597,3.644559,249.357514,1.575888
Bus162,233.777696,-0.534429,247.865626,3.644779,246.593800,1.579832
Bus163,233.777604,-0.534430,247.868505,3.644776,246.593364,1.579832
Bus164,234.300108,-0.535781,247.200957,3.647649,245.149565,1.579231
Bus165,234.298702,-0.535780,247.200815,3.647649,245.149323,1.579230
Bus166,234.300892,-0.535786,247.200483,3.647652,245.146060,1.579227
Bus167,234.300736,-0.535782,247.196953,3.647653,245.147766,1.579227
Bus168,235.038344,-0.537696,246.283811,3.651328,243.134185,1.577830
Bus169,236.976956,-0.534816,249.397597,3.644559,249.357514,1.575888
Bus170,233.777703,-0.534429,247.865038,3.644779,246.593802,1.579832
Bus171,233.777526,-0.534430,247.868192,3.644776,246.592795,1.579831
Bus172,234.300108,-0.535781,247.200957,3.647649,245.149565,1.579231
Bus173,234.298613,-0.535780,247.200815,3.647649,245.149324,1.579230
Bus174,234.300892,-0.535786,247.200483,3.647652,245.146060,1.579227
Bus175,234.300901,-0.535786,247.200513,3.647653,245.143291,1.579230
Bus176,234.300737,-0.535782,247.196890,3.647653,245.147766,1.579227
Bus177,235.077116,-0.537796,246.235762,3.651522,243.028411,1.577755
Bus178,233.777716,-0.534429,247.863824,3.644780,246.593805,1.579832
Bus179,233.777499,-0.534430,247.868102,3.644776,246.592821,1.579831
Bus180,233.777531,-0.534431,247.868208,3.644776,246.591209,1.579832
Bus181,234.300108,-0.535781,247.200957,3.647649,245.149565,1.579231
Bus182,234.298510,-0.535780,247.200815,3.647649,245.149325,1.579230
Bus183,234.300892,-0.535786,247.200483,3.647652,245.146060,1.579227
Bus184,234.300902,-0.535786,247.200516,3.647653,245.142992,1.579230
Bus185,234.300738,-0.535782,247.196756,3.647654,245.147766,1.579227
Bus186,235.105899,-0.537870,246.200100,3.651666,242.949893,1.577700
Bus187,233.777395,-0.534430,247.867750,3.644775,246.592925,1.579830
Bus188,233.777553,-0.534431,247.868278,3.644776,246.584647,1.579839
Bus189,234.300108,-0.535781,247.200957,3.647649,245.149565,1.579231
Bus190,234.298413,-0.535780,247.200816,3.647649,245.149326,1.579230
Bus191,234.300892,-0.535786,247.200483,3.647652,245.146060,1.579227
Bus192,234.300892,-0.535786,247.200483,3.647652,245.146060,1.579227
Bus193,234.300903,-0.535786,247.200519,3.647653,245.142703,1.579230
Bus194,234.300742,-0.535782,247.196412,3.647654,245.147767,1.579227
Bus195,235.131777,-0.537937,246.168043,3.651795,242.879302,1.577651
Bus196,233.777207,-0.534429,247.867122,3.644774,246.593110,1.579830
Bus197,233.777554,-0.534431,247.868283,3.644776,246.584238,1.579839
Bus198,233.777555,-0.534431,247.868284,3.644776,246.584141,1.579840
Bus199,234.300108,-0.535781,247.200957,3.647649,245.149565,1.579231
Bus200,234.298309,-0.535779,247.200816,3.647649,245.149328,1.579230
...
SourceBus_1,6649.036332,-0.002701,6661.096395,4.186636,6658.227294,2.090399
LOAD1,243.253514,-0.538513,250.198895,3.651017,250.250438,1.568303
LOAD2,239.417901,-0.536275,249.702298,3.647079,249.702975,1.572930
LOAD3,243.252670,-0.538512,250.198898,3.651017,250.250447,1.568303
LOAD4,226.927229,-0.525937,248.916089,3.640080,248.863885,1.580978
LOAD5,228.206290,-0.527319,248.911826,3.640153,248.849749,1.580929
LOAD6,239.417904,-0.536275,249.701990,3.647079,249.702976,1.572930
LOAD7,233.777716,-0.534429,247.863824,3.644780,246.593805,1.579832
LOAD8,233.777558,-0.534431,247.868294,3.644776,246.583205,1.579840
LOAD9,233.771637,-0.534423,247.867140,3.644774,246.593172,1.579830
LOAD10,233.777485,-0.534428,247.858104,3.644782,246.593185,1.579828
LOAD11,233.777483,-0.534428,247.858309,3.644782,246.593185,1.579828
LOAD12,233.777565,-0.534431,247.868317,3.644776,246.580972,1.579843
LOAD13,234.300788,-0.535782,247.192212,3.647658,245.147778,1.579227
LOAD14,234.296514,-0.535778,247.200821,3.647649,245.149348,1.579231
LOAD15,234.300781,-0.535782,247.192845,3.647658,245.147776,1.579227
LOAD16,234.300925,-0.535786,247.200588,3.647653,245.136188,1.579237
LOAD17,234.300917,-0.535786,247.200564,3.647653,245.138429,1.579235
LOAD18,236.908691,-0.541948,243.852935,3.661068,235.462228,1.577671
LOAD19,235.539993,-0.538988,245.663596,3.653840,241.763319,1.576869
LOAD20,236.232741,-0.540474,244.726794,3.657466,239.998210,1.575697
LOAD21,235.379743,-0.538582,245.857047,3.653054,242.194064,1.577168
LOAD22,236.231753,-0.540472,244.726797,3.657466,239.998221,1.575697
LOAD23,237.191009,-0.540540,242.889576,3.661742,238.475571,1.572954
LOAD24,235.740295,-0.539681,245.458652,3.654941,240.568381,1.577155
LOAD25,239.437483,-0.531185,235.787102,3.667983,239.231353,1.560015
LOAD26,235.721419,-0.539628,245.433687,3.654912,241.145121,1.576556
LOAD27,235.734767,-0.539644,245.449038,3.654918,241.144741,1.576562
LOAD28,235.734767,-0.539644,245.449038,3.654918,241.144792,1.576562
LOAD29,240.155395,-0.528299,233.560977,3.670033,239.473816,1.555966
LOAD30,239.437682,-0.531185,235.787101,3.667983,239.231351,1.560015
LOAD31,240.155502,-0.528299,233.560977,3.670033,239.473814,1.555966
LOAD32,235.717212,-0.539625,245.432351,3.654908,241.139621,1.576561
LOAD33,241.078582,-0.524703,230.757271,3.672689,239.777982,1.550871
LOAD34,238.840053,-0.533646,237.669115,3.666289,239.027756,1.563437
LOAD35,241.541904,-0.522889,226.051270,3.677712,239.942441,1.548295
LOAD36,240.748726,-0.525996,231.757510,3.671735,239.670495,1.552700
LOAD37,240.748725,-0.525996,231.757628,3.671734,239.670495,1.552700
LOAD38,235.712095,-0.539619,245.424997,3.654907,241.142717,1.576558
LOAD39,235.708124,-0.539616,245.424405,3.654903,241.134641,1.576564
LOAD40,235.705352,-0.539609,245.416814,3.654903,241.140306,1.576556
LOAD41,235.698659,-0.539588,245.398387,3.654911,241.137980,1.576547
LOAD42,235.708126,-0.539616,245.424410,3.654903,241.134208,1.576565
LOAD43,235.694500,-0.539585,245.402533,3.654904,241.128071,1.576557
LOAD44,235.719863,-0.539627,245.431903,3.654912,241.144521,1.576556
LOAD45,235.698657,-0.539588,245.398618,3.654910,241.137979,1.576547
LOAD46,235.694870,-0.539602,245.427696,3.654901,241.142616,1.576560
LOAD47,235.694498,-0.539585,245.402528,3.654904,241.128576,1.576557
LOAD48,235.696124,-0.539603,245.427692,3.654901,241.142602,1.576560
LOAD49,235.694725,-0.539601,245.427696,3.654901,241.142617,1.576560
LOAD50,235.690719,-0.539562,245.383933,3.654909,241.138632,1.576538
LOAD51,235.692983,-0.539591,245.414588,3.654897,241.140214,1.576555
LOAD52,235.681254,-0.539561,245.396394,3.654897,241.138168,1.576547
LOAD53,235.690719,-0.539562,245.383679,3.654909,241.138632,1.576538
LOAD54,235.691499,-0.539589,245.414593,3.654897,241.140230,1.576555
LOAD55,235.680963,-0.539560,245.396417,3.654896,241.138259,1.576547
